# generated using pymatgen
data_Zn3H16C33N2O16F
data_Zn3H16C33N2O16F
_symmetry_space_group_name_H-M   'P 1'
_cell_length_a   18.50326540
_cell_length_b   18.76247148
_cell_length_c   18.89901809
_cell_angle_alpha   110.00503147
_cell_angle_beta   109.23089190
_cell_angle_gamma   108.77324905
_symmetry_Int_Tables_number   1
_chemical_formula_structural   Zn3H16C33N2O16F
_chemical_formula_sum   'Zn6 H32 C66 N4 O32 F2'
_cell_volume   5075.35444919
_cell_formula_units_Z   2
loop_
_symmetry_equiv_pos_site_id
_symmetry_equiv_pos_as_xyz
y,  z'
loop_
_atom_site_label
_atom_site_fract_x
_atom_site_fract_y
_atom_site_fract_z
_atom_site_charge
Zn0  0.43065305  0.42362248  0.50245829  0.72686
Zn1  0.54553078  0.54735992  0.49239574  0.731335
Zn2  0.4548857  0.00925349  0.93810855  0.726733
Zn3  0.58034233  0.01250649  0.06506038  0.727625
Zn4  0.00823004  0.57935978  0.0714996  0.729399
Zn5  0.00820451  0.4586581  0.94218382  0.721412
H6  0.16961402  0.51914405  0.57009283  0.107287
H7  0.63037983  0.66483371  0.72046317  0.099527
H8  0.77546663  0.79546604  0.83128078  0.109037
H9  0.65105471  0.93775549  0.91335208  0.115397
H10  0.32118821  0.78558969  0.77698746  0.102311
H11  0.17825795  0.65324763  0.67144373  0.10364
H12  0.30427078  0.51712577  0.57807174  0.105673
H13  0.3655965  0.5100778  0.24238127  0.106468
H14  0.2457104  0.51126448  0.13646009  0.105243
H15  0.11442859  0.56225967  0.35333446  0.098098
H16  0.05233183  0.44661634  0.28560466  0.098227
H17  0.22945347  0.54776808  0.45401269  0.090623
H18  0.16771003  0.43209298  0.38605168  0.096314
H19  0.4673724  0.36347898  0.24381508  0.111583
H20  0.46672643  0.26398303  0.11734491  0.112434
H21  0.51750012  0.07999657  0.27352814  0.132841
H22  0.38385876  0.11014363  0.32407349  0.114909
H23  0.50038422  0.17101676  0.39340202  0.106544
H24  0.79689137  0.67829593  0.74912745  0.125898
H25  0.74365488  0.35581  0.75604841  0.112215
H26  0.62286633  0.33539519  0.62315437  0.109144
H27  0.43995767  0.80200635  0.11088707  0.121147
H28  0.08359152  0.66503994  0.82722701  0.095271
H29  0.08743146  0.74637816  0.91533377  0.097144
H30  0.20661561  0.78392363  0.83602881  0.097746
H31  0.20794493  0.86319149  0.92310241  0.108754
H32  0.80135825  0.12836942  0.00178771  0.101673
H33  0.89083727  0.22914489  0.96999221  0.109167
H34  0.75778997  0.43676587  0.06407226  0.097815
H35  0.68558035  0.37648155  0.94976528  0.093632
H36  0.6545679  0.32595099  0.08008221  0.093445
H37  0.58493366  0.26300017  0.96512094  0.098038
C38  0.38000974  0.50132756  0.38598557  0.224909
C39  0.46699399  0.57716865  0.61900205  0.225553
C40  0.63769118  0.52823865  0.61783435  0.218343
C41  0.46439002  0.3477127  0.37849192  0.224437
C42  0.63384313  0.72413007  0.76171044  -0.086544
C43  0.71436831  0.79573968  0.82227369  -0.087139
C44  0.71752075  0.87247905  0.87535667  0.07562
C45  0.64357867  0.87721954  0.869458  -0.070236
C46  0.55892093  0.80311385  0.80776675  0.005949
C47  0.55380742  0.72486201  0.7507846  0.005036
C48  0.48061703  0.80470923  0.79995092  0.003999
C49  0.39772549  0.72957943  0.73947085  0.00546
C50  0.39272869  0.65097049  0.6823199  0.006184
C51  0.47066505  0.65107069  0.68739581  0.000621
C52  0.3178864  0.72726621  0.73372824  -0.089675
C53  0.23825061  0.65342259  0.67460282  -0.089269
C54  0.23332343  0.57729027  0.61729736  -0.084261
C55  0.30824779  0.57609137  0.62106305  -0.089185
C56  0.23438314  0.49930925  0.33153727  -0.006309
C57  0.30730878  0.5022812  0.32335033  -0.01397
C58  0.30983466  0.50745742  0.25153697  -0.083441
C59  0.2426016  0.50887437  0.19202415  -0.082194
C60  0.17241808  0.51269071  0.20430639  -0.007962
C61  0.17029486  0.50754034  0.27544183  -0.00439
C62  0.11854409  0.50329899  0.32316317  -0.149947
C63  0.19118837  0.49417469  0.38662272  -0.153985
C64  0.45129557  0.2022009  0.28871394  0.003431
C65  0.45758168  0.28200718  0.30122039  -0.008939
C66  0.46287956  0.30188671  0.2369009  -0.071854
C67  0.46343598  0.2461142  0.16582145  -0.076684
C68  0.4642217  0.16907663  0.15763301  0.001329
C69  0.45760233  0.14956466  0.22077757  -0.010922
C70  0.45822661  0.08624202  0.2526653  0.02025
C71  0.44700289  0.14339824  0.32780803  -0.134852
C72  0.69532164  0.47771918  0.71994314  0.006097
C73  0.70670945  0.54331874  0.69843484  -0.000578
C74  0.78355574  0.62286567  0.7594481  -0.056711
C75  0.84541582  0.63357452  0.83518705  0.089782
C76  0.83800833  0.56599176  0.85404543  0.024276
C77  0.759077  0.48853483  0.79331102  -0.003694
C78  0.71090815  0.39431677  0.7692112  0.034712
C79  0.63662702  0.38245581  0.68653946  0.033656
C80  0.4245592  0.89167977  0.02171503  0.218196
C81  0.48772012  0.88512644  0.86285417  0.225047
C82  0.65589047  0.12323089  0.02028278  0.227887
C83  0.47840593  0.11494461  0.09039593  0.225958
C84  0.13909682  0.61479819  0.00093463  0.225546
C85  0.10802809  0.52210432  0.14139745  0.226681
C86  0.88650515  0.3752882  0.97040446  0.220312
C87  0.90561935  0.56403312  0.92381898  0.225036
C88  0.26614945  0.7876749  0.96070158  0.014596
C89  0.35466769  0.81970291  0.01595349  -0.013711
C90  0.37263395  0.78102425  0.06623269  -0.063725
C91  0.30446885  0.71521577  0.06066523  0.081923
C92  0.21440964  0.68327064  0.00627581  0.016082
C93  0.19871968  0.72191525  0.95615823  -0.000138
C94  0.12699124  0.72481051  0.89072486  -0.153308
C95  0.20351292  0.79898326  0.89611721  -0.147368
C96  0.70807193  0.25682506  0.00949025  -0.007797
C97  0.71964541  0.18769892  0.0119342  -0.011634
C98  0.78870928  0.18066704  0.99956163  -0.085465
C99  0.83977057  0.23815991  0.98194514  -0.081975
C100  0.82851625  0.30892754  0.98137242  -0.013086
C101  0.76275437  0.31742187  0.99793437  -0.003832
C102  0.71688808  0.37130842  0.00677796  -0.153258
C103  0.6534192  0.30129222  0.01770645  -0.152352
N104  0.38248026  0.99383192  0.19399338  0.055371
N105  0.92287957  0.72131033  0.8958575  0.060284
N106  0.32922938  0.67857287  0.11572961  0.058951
N107  0.80375547  0.95042102  0.93935986  0.054769
O108  0.36048224  0.45258238  0.41753015  -0.31454
O109  0.45828104  0.55053019  0.40394535  -0.316495
O110  0.42314368  0.49813568  0.6001216  -0.306451
O111  0.50899116  0.59952782  0.58217344  -0.306369
O112  0.56257671  0.46410193  0.58459734  -0.302642
O113  0.65724322  0.58013988  0.58854992  -0.312016
O114  0.41988964  0.32165634  0.41309697  -0.313439
O115  0.51509003  0.42659138  0.40463404  -0.313761
O116  0.39889079  0.91821698  0.96970996  -0.307467
O117  0.50503699  0.92258765  0.07798507  -0.317387
O118  0.43961836  0.91659297  0.83508828  -0.310328
O119  0.54159192  0.91681342  0.94190721  -0.304035
O120  0.57580102  0.10040236  0.97424318  -0.312569
O121  0.68254963  0.0953237  0.07166704  -0.309962
O122  0.43266888  0.09344951  0.01130614  -0.31126
O123  0.53658481  0.09450261  0.11862726  -0.312913
O124  0.10891131  0.64058345  0.04952866  -0.301452
O125  0.10666162  0.53628368  0.94092122  -0.31725
O126  0.07939895  0.57378104  0.16980931  -0.315534
O127  0.08658747  0.47953179  0.0624816  -0.308522
O128  0.90456157  0.45324637  0.01483911  -0.310116
O129  0.91599413  0.35194075  0.91824934  -0.321251
O130  0.92603579  0.60608704  0.00279688  -0.302843
O131  0.93100341  0.51208146  0.89243786  -0.301115
O132  0.32685004  0.97486401  0.12257709  -0.121486
O133  0.38188162  0.94392465  0.22306952  -0.136396
O134  0.98709219  0.72758175  0.95156944  -0.106004
O135  0.91878191  0.78266815  0.88713019  -0.122479
O136  0.26830559  0.62531736  0.11582913  -0.113048
O137  0.40777248  0.7015825  0.15844687  -0.141084
O138  0.8676541  0.95098066  0.93107467  -0.13749
O139  0.80747538  0.01081109  0.99764554  -0.140911
F140  0.68280941  0.38009377  0.82552205  -0.128792
F141  0.55754089  0.36252007  0.68670049  -0.139091
