# generated using pymatgen
data_Zn3H16C33N2O16F
_symmetry_space_group_name_H-M   'P 1'
_cell_length_a   18.50326540
_cell_length_b   18.76247148
_cell_length_c   18.89901809
_cell_angle_alpha   110.00503147
_cell_angle_beta   109.23089190
_cell_angle_gamma   108.77324905
_symmetry_Int_Tables_number   1
_chemical_formula_structural   Zn3H16C33N2O16F
_chemical_formula_sum   'Zn6 H32 C66 N4 O32 F2'
_cell_volume   5075.35444919
_cell_formula_units_Z   2
loop_
_symmetry_equiv_pos_as_xyz
'x, y, z'
loop_
_atom_site_type_symbol
_atom_site_label
_atom_site_symmetry_multiplicity
_atom_site_fract_x
_atom_site_fract_y
_atom_site_fract_z
_atom_site_charge
Zn  Zn0  1  0.43065305  0.42362248  0.50245829  0.957946
Zn  Zn1  1  0.54553078  0.54735992  0.49239574  0.966493
Zn  Zn2  1  0.4548857  0.00925349  0.93810855  0.953705
Zn  Zn3  1  0.58034233  0.01250649  0.06506038  0.9577
Zn  Zn4  1  0.00823004  0.57935978  0.0714996  0.962981
Zn  Zn5  1  0.00820451  0.4586581  0.94218382  0.952434
H  H6  1  0.16961402  0.51914405  0.57009283  0.102581
H  H7  1  0.63037983  0.66483371  0.72046317  0.102708
H  H8  1  0.77546663  0.79546604  0.83128078  0.121372
H  H9  1  0.65105471  0.93775549  0.91335208  0.132789
H  H10  1  0.32118821  0.78558969  0.77698746  0.109897
H  H11  1  0.17825795  0.65324763  0.67144373  0.098409
H  H12  1  0.30427078  0.51712577  0.57807174  0.114996
H  H13  1  0.3655965  0.5100778  0.24238127  0.111034
H  H14  1  0.2457104  0.51126448  0.13646009  0.115783
H  H15  1  0.11442859  0.56225967  0.35333446  0.107356
H  H16  1  0.05233183  0.44661634  0.28560466  0.10594
H  H17  1  0.22945347  0.54776808  0.45401269  0.098447
H  H18  1  0.16771003  0.43209298  0.38605168  0.105255
H  H19  1  0.4673724  0.36347898  0.24381508  0.117367
H  H20  1  0.46672643  0.26398303  0.11734491  0.116937
H  H21  1  0.51750012  0.07999657  0.27352814  0.115932
H  H22  1  0.38385876  0.11014363  0.32407349  0.136272
H  H23  1  0.50038422  0.17101676  0.39340202  0.122301
H  H24  1  0.79689137  0.67829593  0.74912745  0.142902
H  H25  1  0.74365488  0.35581  0.75604841  0.080315
H  H26  1  0.62286633  0.33539519  0.62315437  0.073374
H  H27  1  0.43995767  0.80200635  0.11088707  0.136931
H  H28  1  0.08359152  0.66503994  0.82722701  0.102701
H  H29  1  0.08743146  0.74637816  0.91533377  0.116651
H  H30  1  0.20661561  0.78392363  0.83602881  0.107717
H  H31  1  0.20794493  0.86319149  0.92310241  0.130234
H  H32  1  0.80135825  0.12836942  0.00178771  0.11647
H  H33  1  0.89083727  0.22914489  0.96999221  0.116105
H  H34  1  0.75778997  0.43676587  0.06407226  0.110523
H  H35  1  0.68558035  0.37648155  0.94976528  0.113812
H  H36  1  0.6545679  0.32595099  0.08008221  0.098242
H  H37  1  0.58493366  0.26300017  0.96512094  0.110047
C  C38  1  0.38000974  0.50132756  0.38598557  0.621727
C  C39  1  0.46699399  0.57716865  0.61900205  0.611997
C  C40  1  0.63769118  0.52823865  0.61783435  0.592361
C  C41  1  0.46439002  0.3477127  0.37849192  0.616181
C  C42  1  0.63384313  0.72413007  0.76171044  -0.102279
C  C43  1  0.71436831  0.79573968  0.82227369  -0.134357
C  C44  1  0.71752075  0.87247905  0.87535667  0.076085
C  C45  1  0.64357867  0.87721954  0.869458  -0.148587
C  C46  1  0.55892093  0.80311385  0.80776675  0.072144
C  C47  1  0.55380742  0.72486201  0.7507846  0.063923
C  C48  1  0.48061703  0.80470923  0.79995092  -0.097383
C  C49  1  0.39772549  0.72957943  0.73947085  0.065395
C  C50  1  0.39272869  0.65097049  0.6823199  0.069259
C  C51  1  0.47066505  0.65107069  0.68739581  -0.103439
C  C52  1  0.3178864  0.72726621  0.73372824  -0.126972
C  C53  1  0.23825061  0.65342259  0.67460282  -0.081354
C  C54  1  0.23332343  0.57729027  0.61729736  -0.070821
C  C55  1  0.30824779  0.57609137  0.62106305  -0.135766
C  C56  1  0.23438314  0.49930925  0.33153727  0.057847
C  C57  1  0.30730878  0.5022812  0.32335033  -0.074592
C  C58  1  0.30983466  0.50745742  0.25153697  -0.099658
C  C59  1  0.2426016  0.50887437  0.19202415  -0.094346
C  C60  1  0.17241808  0.51269071  0.20430639  -0.060351
C  C61  1  0.17029486  0.50754034  0.27544183  0.054103
C  C62  1  0.11854409  0.50329899  0.32316317  -0.196773
C  C63  1  0.19118837  0.49417469  0.38662272  -0.198302
C  C64  1  0.45129557  0.2022009  0.28871394  0.075998
C  C65  1  0.45758168  0.28200718  0.30122039  -0.065216
C  C66  1  0.46287956  0.30188671  0.2369009  -0.081082
C  C67  1  0.46343598  0.2461142  0.16582145  -0.101447
C  C68  1  0.4642217  0.16907663  0.15763301  -0.031672
C  C69  1  0.45760233  0.14956466  0.22077757  -0.006056
C  C70  1  0.45822661  0.08624202  0.2526653  -0.028115
C  C71  1  0.44700289  0.14339824  0.32780803  -0.231048
C  C72  1  0.69532164  0.47771918  0.71994314  0.019253
C  C73  1  0.70670945  0.54331874  0.69843484  -0.033654
C  C74  1  0.78355574  0.62286567  0.7594481  -0.122395
C  C75  1  0.84541582  0.63357452  0.83518705  0.046308
C  C76  1  0.83800833  0.56599176  0.85404543  -0.031473
C  C77  1  0.759077  0.48853483  0.79331102  -0.013939
C  C78  1  0.71090815  0.39431677  0.7692112  0.114654
C  C79  1  0.63662702  0.38245581  0.68653946  0.112425
C  C80  1  0.4245592  0.89167977  0.02171503  0.605935
C  C81  1  0.48772012  0.88512644  0.86285417  0.612767
C  C82  1  0.65589047  0.12323089  0.02028278  0.61918
C  C83  1  0.47840593  0.11494461  0.09039593  0.616795
C  C84  1  0.13909682  0.61479819  0.00093463  0.625391
C  C85  1  0.10802809  0.52210432  0.14139745  0.622304
C  C86  1  0.88650515  0.3752882  0.97040446  0.612216
C  C87  1  0.90561935  0.56403312  0.92381898  0.6106
C  C88  1  0.26614945  0.7876749  0.96070158  0.095504
C  C89  1  0.35466769  0.81970291  0.01595349  -0.079168
C  C90  1  0.37263395  0.78102425  0.06623269  -0.116645
C  C91  1  0.30446885  0.71521577  0.06066523  0.034843
C  C92  1  0.21440964  0.68327064  0.00627581  -0.064185
C  C93  1  0.19871968  0.72191525  0.95615823  0.057686
C  C94  1  0.12699124  0.72481051  0.89072486  -0.196951
C  C95  1  0.20351292  0.79898326  0.89611721  -0.201322
C  C96  1  0.70807193  0.25682506  0.00949025  0.051545
C  C97  1  0.71964541  0.18769892  0.0119342  -0.065012
C  C98  1  0.78870928  0.18066704  0.99956163  -0.108428
C  C99  1  0.83977057  0.23815991  0.98194514  -0.098305
C  C100  1  0.82851625  0.30892754  0.98137242  -0.07552
C  C101  1  0.76275437  0.31742187  0.99793437  0.065477
C  C102  1  0.71688808  0.37130842  0.00677796  -0.204608
C  C103  1  0.6534192  0.30129222  0.01770645  -0.193789
N  N104  1  0.38248026  0.99383192  0.19399338  0.526264
N  N105  1  0.92287957  0.72131033  0.8958575  0.503952
N  N106  1  0.32922938  0.67857287  0.11572961  0.519203
N  N107  1  0.80375547  0.95042102  0.93935986  0.511519
O  O108  1  0.36048224  0.45258238  0.41753015  -0.570385
O  O109  1  0.45828104  0.55053019  0.40394535  -0.530953
O  O110  1  0.42314368  0.49813568  0.6001216  -0.517739
O  O111  1  0.50899116  0.59952782  0.58217344  -0.57002
O  O112  1  0.56257671  0.46410193  0.58459734  -0.560426
O  O113  1  0.65724322  0.58013988  0.58854992  -0.519264
O  O114  1  0.41988964  0.32165634  0.41309697  -0.523008
O  O115  1  0.51509003  0.42659138  0.40463404  -0.575997
O  O116  1  0.39889079  0.91821698  0.96970996  -0.566903
O  O117  1  0.50503699  0.92258765  0.07798507  -0.525001
O  O118  1  0.43961836  0.91659297  0.83508828  -0.523736
O  O119  1  0.54159192  0.91681342  0.94190721  -0.56453
O  O120  1  0.57580102  0.10040236  0.97424318  -0.571924
O  O121  1  0.68254963  0.0953237  0.07166704  -0.517677
O  O122  1  0.43266888  0.09344951  0.01130614  -0.520612
O  O123  1  0.53658481  0.09450261  0.11862726  -0.573779
O  O124  1  0.10891131  0.64058345  0.04952866  -0.549512
O  O125  1  0.10666162  0.53628368  0.94092122  -0.528108
O  O126  1  0.07939895  0.57378104  0.16980931  -0.52866
O  O127  1  0.08658747  0.47953179  0.0624816  -0.567392
O  O128  1  0.90456157  0.45324637  0.01483911  -0.572556
O  O129  1  0.91599413  0.35194075  0.91824934  -0.534611
O  O130  1  0.92603579  0.60608704  0.00279688  -0.502624
O  O131  1  0.93100341  0.51208146  0.89243786  -0.558495
O  O132  1  0.32685004  0.97486401  0.12257709  -0.321461
O  O133  1  0.38188162  0.94392465  0.22306952  -0.337876
O  O134  1  0.98709219  0.72758175  0.95156944  -0.301775
O  O135  1  0.91878191  0.78266815  0.88713019  -0.318461
O  O136  1  0.26830559  0.62531736  0.11582913  -0.317656
O  O137  1  0.40777248  0.7015825  0.15844687  -0.337393
O  O138  1  0.8676541  0.95098066  0.93107467  -0.329818
O  O139  1  0.80747538  0.01081109  0.99764554  -0.348892
F  F140  1  0.68280941  0.38009377  0.82552205  -0.170718
F  F141  1  0.55754089  0.36252007  0.68670049  -0.17053
