# generated using pymatgen
data_Zn3H16C33N2O16F
data_Zn3H16C33N2O16F
_symmetry_space_group_name_H-M   'P 1'
_cell_length_a   18.50326540
_cell_length_b   18.76247148
_cell_length_c   18.89901809
_cell_angle_alpha   110.00503147
_cell_angle_beta   109.23089190
_cell_angle_gamma   108.77324905
_symmetry_Int_Tables_number   1
_chemical_formula_structural   Zn3H16C33N2O16F
_chemical_formula_sum   'Zn6 H32 C66 N4 O32 F2'
_cell_volume   5075.35444919
_cell_formula_units_Z   2
loop_
_symmetry_equiv_pos_site_id
_symmetry_equiv_pos_as_xyz
y,  z'
loop_
_atom_site_label
_atom_site_fract_x
_atom_site_fract_y
_atom_site_fract_z
_atom_site_charge
Zn0  0.43065305  0.42362248  0.50245829  1.313884
Zn1  0.54553078  0.54735992  0.49239574  1.312992
Zn2  0.4548857  0.00925349  0.93810855  1.314035
Zn3  0.58034233  0.01250649  0.06506038  1.310913
Zn4  0.00823004  0.57935978  0.0714996  1.309637
Zn5  0.00820451  0.4586581  0.94218382  1.303528
H6  0.16961402  0.51914405  0.57009283  0.103922
H7  0.63037983  0.66483371  0.72046317  0.097265
H8  0.77546663  0.79546604  0.83128078  0.128999
H9  0.65105471  0.93775549  0.91335208  0.141417
H10  0.32118821  0.78558969  0.77698746  0.102673
H11  0.17825795  0.65324763  0.67144373  0.035627
H12  0.30427078  0.51712577  0.57807174  0.091867
H13  0.3655965  0.5100778  0.24238127  0.094484
H14  0.2457104  0.51126448  0.13646009  0.107038
H15  0.11442859  0.56225967  0.35333446  0.053973
H16  0.05233183  0.44661634  0.28560466  0.04333
H17  0.22945347  0.54776808  0.45401269  0.077984
H18  0.16771003  0.43209298  0.38605168  0.037136
H19  0.4673724  0.36347898  0.24381508  0.07577
H20  0.46672643  0.26398303  0.11734491  0.085026
H21  0.51750012  0.07999657  0.27352814  0.094509
H22  0.38385876  0.11014363  0.32407349  0.090722
H23  0.50038422  0.17101676  0.39340202  0.074656
H24  0.79689137  0.67829593  0.74912745  0.140634
H25  0.74365488  0.35581  0.75604841  0.088335
H26  0.62286633  0.33539519  0.62315437  0.106553
H27  0.43995767  0.80200635  0.11088707  0.154037
H28  0.08359152  0.66503994  0.82722701  0.033292
H29  0.08743146  0.74637816  0.91533377  0.096146
H30  0.20661561  0.78392363  0.83602881  0.044777
H31  0.20794493  0.86319149  0.92310241  0.089509
H32  0.80135825  0.12836942  0.00178771  0.137185
H33  0.89083727  0.22914489  0.96999221  0.089337
H34  0.75778997  0.43676587  0.06407226  0.059633
H35  0.68558035  0.37648155  0.94976528  0.076353
H36  0.6545679  0.32595099  0.08008221  0.043625
H37  0.58493366  0.26300017  0.96512094  0.059208
C38  0.38000974  0.50132756  0.38598557  1.508995
C39  0.46699399  0.57716865  0.61900205  1.553908
C40  0.63769118  0.52823865  0.61783435  1.571983
C41  0.46439002  0.3477127  0.37849192  1.55258
C42  0.63384313  0.72413007  0.76171044  -0.00769
C43  0.71436831  0.79573968  0.82227369  -0.045842
C44  0.71752075  0.87247905  0.87535667  0.129234
C45  0.64357867  0.87721954  0.869458  0.06998
C46  0.55892093  0.80311385  0.80776675  -0.002475
C47  0.55380742  0.72486201  0.7507846  0.039031
C48  0.48061703  0.80470923  0.79995092  -0.007122
C49  0.39772549  0.72957943  0.73947085  -0.025646
C50  0.39272869  0.65097049  0.6823199  0.024535
C51  0.47066505  0.65107069  0.68739581  -0.025445
C52  0.3178864  0.72726621  0.73372824  0.035997
C53  0.23825061  0.65342259  0.67460282  -0.066084
C54  0.23332343  0.57729027  0.61729736  -0.081293
C55  0.30824779  0.57609137  0.62106305  -0.039676
C56  0.23438314  0.49930925  0.33153727  -0.034693
C57  0.30730878  0.5022812  0.32335033  -0.006823
C58  0.30983466  0.50745742  0.25153697  -0.081822
C59  0.2426016  0.50887437  0.19202415  0.042883
C60  0.17241808  0.51269071  0.20430639  -0.037829
C61  0.17029486  0.50754034  0.27544183  0.020966
C62  0.11854409  0.50329899  0.32316317  -0.01194
C63  0.19118837  0.49417469  0.38662272  -0.024221
C64  0.45129557  0.2022009  0.28871394  0.038729
C65  0.45758168  0.28200718  0.30122039  -0.034817
C66  0.46287956  0.30188671  0.2369009  -0.037187
C67  0.46343598  0.2461142  0.16582145  0.023346
C68  0.4642217  0.16907663  0.15763301  0.002971
C69  0.45760233  0.14956466  0.22077757  -0.032549
C70  0.45822661  0.08624202  0.2526653  0.239742
C71  0.44700289  0.14339824  0.32780803  -0.033669
C72  0.69532164  0.47771918  0.71994314  -0.0671
C73  0.70670945  0.54331874  0.69843484  0.086507
C74  0.78355574  0.62286567  0.7594481  -0.002131
C75  0.84541582  0.63357452  0.83518705  0.201841
C76  0.83800833  0.56599176  0.85404543  0.04634
C77  0.759077  0.48853483  0.79331102  0.013864
C78  0.71090815  0.39431677  0.7692112  0.539873
C79  0.63662702  0.38245581  0.68653946  0.544793
C80  0.4245592  0.89167977  0.02171503  1.528733
C81  0.48772012  0.88512644  0.86285417  1.546899
C82  0.65589047  0.12323089  0.02028278  1.515266
C83  0.47840593  0.11494461  0.09039593  1.581158
C84  0.13909682  0.61479819  0.00093463  1.61714
C85  0.10802809  0.52210432  0.14139745  1.538734
C86  0.88650515  0.3752882  0.97040446  1.520577
C87  0.90561935  0.56403312  0.92381898  1.634293
C88  0.26614945  0.7876749  0.96070158  -0.022961
C89  0.35466769  0.81970291  0.01595349  0.086367
C90  0.37263395  0.78102425  0.06623269  0.031491
C91  0.30446885  0.71521577  0.06066523  0.206979
C92  0.21440964  0.68327064  0.00627581  0.025508
C93  0.19871968  0.72191525  0.95615823  -0.00272
C94  0.12699124  0.72481051  0.89072486  -0.024781
C95  0.20351292  0.79898326  0.89611721  -0.022764
C96  0.70807193  0.25682506  0.00949025  -0.016312
C97  0.71964541  0.18769892  0.0119342  -0.012698
C98  0.78870928  0.18066704  0.99956163  -0.041153
C99  0.83977057  0.23815991  0.98194514  -0.037076
C100  0.82851625  0.30892754  0.98137242  -0.039779
C101  0.76275437  0.31742187  0.99793437  0.035657
C102  0.71688808  0.37130842  0.00677796  -0.032468
C103  0.6534192  0.30129222  0.01770645  -0.043486
N104  0.38248026  0.99383192  0.19399338  0.444465
N105  0.92287957  0.72131033  0.8958575  0.40006
N106  0.32922938  0.67857287  0.11572961  0.35738
N107  0.80375547  0.95042102  0.93935986  0.370493
O108  0.36048224  0.45258238  0.41753015  -1.163374
O109  0.45828104  0.55053019  0.40394535  -1.12981
O110  0.42314368  0.49813568  0.6001216  -1.127675
O111  0.50899116  0.59952782  0.58217344  -1.17329
O112  0.56257671  0.46410193  0.58459734  -1.169033
O113  0.65724322  0.58013988  0.58854992  -1.128297
O114  0.41988964  0.32165634  0.41309697  -1.125985
O115  0.51509003  0.42659138  0.40463404  -1.172925
O116  0.39889079  0.91821698  0.96970996  -1.167902
O117  0.50503699  0.92258765  0.07798507  -1.13169
O118  0.43961836  0.91659297  0.83508828  -1.131643
O119  0.54159192  0.91681342  0.94190721  -1.169923
O120  0.57580102  0.10040236  0.97424318  -1.173178
O121  0.68254963  0.0953237  0.07166704  -1.111627
O122  0.43266888  0.09344951  0.01130614  -1.130966
O123  0.53658481  0.09450261  0.11862726  -1.16458
O124  0.10891131  0.64058345  0.04952866  -1.154684
O125  0.10666162  0.53628368  0.94092122  -1.126773
O126  0.07939895  0.57378104  0.16980931  -1.121244
O127  0.08658747  0.47953179  0.0624816  -1.177607
O128  0.90456157  0.45324637  0.01483911  -1.173005
O129  0.91599413  0.35194075  0.91824934  -1.124436
O130  0.92603579  0.60608704  0.00279688  -1.119952
O131  0.93100341  0.51208146  0.89243786  -1.154155
O132  0.32685004  0.97486401  0.12257709  -0.440533
O133  0.38188162  0.94392465  0.22306952  -0.453292
O134  0.98709219  0.72758175  0.95156944  -0.445053
O135  0.91878191  0.78266815  0.88713019  -0.433376
O136  0.26830559  0.62531736  0.11582913  -0.459381
O137  0.40777248  0.7015825  0.15844687  -0.453983
O138  0.8676541  0.95098066  0.93107467  -0.440886
O139  0.80747538  0.01081109  0.99764554  -0.459825
F140  0.68280941  0.38009377  0.82552205  -0.623853
F141  0.55754089  0.36252007  0.68670049  -0.613123
